data/irish_network/psse/SummerPeak2019.raw
0,   100.00          / PSS/E-30.3    MON, NOV 18 2013  18:08
AITYTFS Summer Peak 2019

    10,'F_M         ',  38.0000,1,     0.000,     0.000,   2,   1,1.06975, -10.7845,   2
    11,'FMN LOOP    ',  38.0000,1,     0.000,     0.000,   2,   1,1.05465,  -9.8479,   2
    12,'BEDFORD     ',  38.0000,1,     0.000,     0.000,   1,   1,1.05506,  -7.0407,   2
    13,'M_R         ',  38.0000,1,     0.000,     0.000,   1,   1,1.07019,  -7.2788,   2
    14,'F_I         ',  38.0000,1,     0.000,     0.000,   2,   1,1.04614, -10.9592,   2
    15,'I_M         ',  38.0000,1,     0.000,     0.000,   2,   1,1.06164, -10.5877,   2
  1021,'ARDNACRU    ', 110.0000,1,     0.000,     0.000,   4,   1,1.04558,  -4.0363,   1
  1041,'AGHADA      ', 110.0000,1,     0.000,     0.000,   3,   1,1.04456,  -2.8445,   1
  1042,'AGHADA      ', 220.0000,1,     0.000,     0.000,   3,   1,1.05000,  -0.0519,   1
  1052,'AGHADA_B    ', 220.0000,1,     0.000,     0.000,   3,   1,1.05185,  -0.9387,   1
  1061,'ARIGNA      ', 110.0000,1,     0.000,     0.000,   9,   1,1.04710,  -6.9227,   2
  1062,'AGH_AT14    ', 220.0000,1,     0.000,     0.000,   3,   1,1.05000,  -0.0519,   1
  1071,'AGANNYGA    ', 110.0000,1,     0.000,     0.000,   4,   1,1.06219,  -2.0921,   1
  1072,'AGHT2102    ', 220.0000,1,     0.000,     0.000,   3,   1,1.04994,  -0.0651,   1
  1081,'AHANE       ', 110.0000,1,     0.000,     0.000,   7,   1,1.04527,  -3.7891,   2
  1091,'ADAMSTOW    ', 110.0000,1,     0.000,     0.000,   1,   1,1.03822,  -9.9952,   2
  1101,'ANNER       ', 110.0000,1,     0.000,     0.000,   5,   1,1.04797,  -6.4818,   5
  1121,'ARKLOW      ', 110.0000,1,     0.000,     0.000,   6,   1,1.07030,  -4.9262,   1
  1122,'ARKLOW      ', 220.0000,1,     0.000,     0.000,   6,   1,1.06895,  -4.1858,   1
  1131,'ATHEA       ', 110.0000,1,     0.000,     0.000,   7,   1,1.04993,   3.7331,   4
  1141,'ATHLONE     ', 110.0000,1,     0.000,     0.000,   9,   1,1.05656,  -4.6781,   1
  1151,'ATHEA-2     ', 110.0000,1,     0.000,     0.000,   7,   1,1.04993,   3.7331,   1
  1161,'AUGHINIS    ', 110.0000,1,     0.000,     0.000,   7,   1,1.05000,   0.7401,   1
  1181,'ARVA        ', 110.0000,1,     0.000,     0.000,  10,   1,1.04140,  -9.8271,   1
  1201,'ARTANE      ', 110.0000,1,     0.000,     0.000,   1,   1,1.05837,  -7.6775,   2
  1211,'BALLYVOU    ', 110.0000,1,     0.000,     0.000,   3,   1,1.04867,   2.3789,   1
  1212,'BALLYVOU    ', 220.0000,1,     0.000,     0.000,   3,   1,1.05602,   1.5041,   1
  1221,'ATHY        ', 110.0000,1,     0.000,     0.000,   8,   1,1.06436,  -5.4295,   1
  1231,'BALLYWAT    ', 110.0000,1,     0.000,     0.000,   6,   1,1.06696,  -4.1757,   4
  1251,'BOOLTIAG    ', 110.0000,1,     0.000,     0.000,   4,   1,1.05821,  -2.0293,   2
  1271,'BALTRASN    ', 110.0000,1,     0.000,     0.000,  10,   1,1.04810,  -8.4792,   1
  1281,'BALLYLIC    ', 110.0000,1,     0.000,     0.000,   3,   1,1.04278,  -3.0384,   2
  1301,'BALLYBEG    ', 110.0000,1,     0.000,     0.000,   6,   1,1.06587,  -5.6574,   1
  1311,'CORDAL      ', 110.0000,1,     0.000,     0.000,   3,   1,1.05269,   3.5755,   1
  1321,'BLAKE       ', 110.0000,1,     0.000,     0.000,   8,   1,1.05659,  -6.6328,   2
  1341,'BINBANE     ', 110.0000,1,     0.000,     0.000,   9,   1,1.03665, -10.7753,   2
  1351,'BARODA      ', 110.0000,1,     0.000,     0.000,   8,   1,1.05618,  -6.8237,   1
  1361,'BALLYDIN    ', 110.0000,1,     0.000,     0.000,   5,   1,1.04749,  -6.1344,   1
  1381,'BARNAHEL    ', 110.0000,1,     0.000,     0.000,   3,   1,1.03836,  -3.4901,   1
  1391,'BARNAHEL    ', 110.0000,1,     0.000,     0.000,   3,   1,1.03794,  -3.6462,   1
  1401,'BELLACOR    ', 110.0000,1,     0.000,     0.000,   9,   1,1.04370,  -7.4592,   1
  1421,'BLACKROC    ', 110.0000,1,     0.000,     0.000,   1,   1,1.05825,  -7.8698,   2
  1431,'BALLYRAG    ', 110.0000,1,     0.000,     0.000,   6,   1,1.05725,  -6.3443,   1
  1441,'BANDON      ', 110.0000,1,     0.000,     0.000,   3,   1,1.02879,  -4.6143,   1
  1451,'CLOGHRAN    ', 110.0000,1,     0.000,     0.000,   1,   1,1.05456,  -7.8592,   1
  1461,'BARRYMOR    ', 110.0000,1,     0.000,     0.000,   5,   1,1.04389,  -4.4925,   2
  1471,'BELCAMP     ', 110.0000,1,     0.000,     0.000,   1,   1,1.07170,  -7.7927,   2
  1472,'BELCAMP     ', 220.0000,1,     0.000,     0.000,   1,   1,1.07673,  -5.5778,   2
  1481,'BUTLERST    ', 110.0000,1,     0.000,     0.000,   5,   1,1.05588,  -5.1894,   1
  1492,'BALLAKEL    ', 220.0000,1,     0.000,     0.000,  10,   1,1.04781,  -6.1060,   1
  1501,'BRINNY      ', 110.0000,1,     0.000,     0.000,   3,   1,1.02859,  -4.6272,   5
  1511,'KNOCKNAG    ', 110.0000,1,     0.000,     0.000,   7,   1,1.05000,   4.0253,   1
  1541,'BANOGE      ', 110.0000,1,     0.000,     0.000,   6,   1,1.06451,  -4.9179,   1
  1551,'BOGGERAG    ', 110.0000,1,     0.000,     0.000,   3,   1,1.05000,   3.1047,   1
  1571,'ARDNAGAP    ', 110.0000,1,     0.000,     0.000,   9,   1,1.01886, -11.9484,   2
  1581,'CABRA       ', 110.0000,1,     0.000,     0.000,   1,   1,1.05781,  -7.7133,   2
  1601,'CLASHAVO    ', 110.0000,1,     0.000,     0.000,   3,   1,1.04277,  -2.8506,   1
  1602,'CLASHAVO    ', 220.0000,1,     0.000,     0.000,   3,   1,1.05223,   0.5349,   1
  1611,'CLONKEEN    ', 110.0000,1,     0.000,     0.000,   7,   1,1.03900,  -3.3391,   1
  1621,'COOLROE     ', 110.0000,1,     0.000,     0.000,   3,   1,1.03454,  -4.1169,   1
  1631,'CORDERRY    ', 110.0000,1,     0.000,     0.000,   9,   1,1.05000,  -6.9013,   1
  1641,'CASHLA      ', 110.0000,1,     0.000,     0.000,   9,   1,1.06839,  -2.3927,   1
  1642,'CASHLA      ', 220.0000,1,     0.000,     0.000,   9,   1,1.06710,  -0.2799,   1
  1651,'CLAHANE     ', 110.0000,1,     0.000,     0.000,   7,   1,1.05482,  -1.7237,   1
  1661,'CASTLEBA    ', 110.0000,1,     0.000,     0.000,   9,   1,1.05000,  -7.0343,   1
  1681,'CARRIGAD    ', 110.0000,1,     0.000,     0.000,   3,   1,1.03907,  -3.3773,   1
  1691,'CENTRAL     ', 110.0000,1,     0.000,     0.000,   1,   1,1.05877,  -7.7939,   1
  1701,'CATH_FAL    ', 110.0000,1,     0.000,     0.000,   9,   1,1.04955,  -9.7948,   1
  1711,'CROMCAST    ', 110.0000,1,     0.000,     0.000,   1,   1,1.07082,  -7.8684,   1
  1721,'CAHIR       ', 110.0000,1,     0.000,     0.000,   5,   1,1.05746,  -6.0960,   1
  1731,'CROMCAST    ', 110.0000,1,     0.000,     0.000,   1,   1,1.07082,  -7.8684,   1
  1741,'CARRICKM    ', 110.0000,1,     0.000,     0.000,   2,   1,1.05892,  -7.7477,   1
  1742,'CARRICKM    ', 220.0000,1,     0.000,     0.000,   2,   1,1.06975,  -5.1788,   1
  1761,'CLIFF       ', 110.0000,1,     0.000,     0.000,   9,   1,1.04957,  -9.7951,   1
  1781,'CASTLEFA    ', 110.0000,1,     0.000,     0.000,   7,   1,1.04960,   0.7193,   5
  1791,'BRACKLON    ', 110.0000,1,     0.000,     0.000,   8,   1,1.05533,  -6.0943,   1
  1801,'COOKSTOW    ', 110.0000,1,     0.000,     0.000,   1,   1,1.06403,  -6.2266,   2
  1821,'CLOON       ', 110.0000,1,     0.000,     0.000,   9,   1,1.05763,  -4.2872,   1
  1831,'SCREEB      ', 110.0000,1,     0.000,     0.000,   9,   1,1.05254,  -3.5669,   2
  1841,'CRANE       ', 110.0000,1,     0.000,     0.000,   6,   1,1.06565,  -4.3655,   1
  1851,'CHERRYWO    ', 110.0000,1,     0.000,     0.000,   2,   1,1.05611,  -7.8962,   1
  1861,'CARICKON    ', 110.0000,1,     0.000,     0.000,   9,   1,1.04789,  -7.0190,   1
  1871,'COLLEGE     ', 110.0000,1,     0.000,     0.000,   2,   1,1.05675,  -7.6827,   1
  1881,'CHARLEVI    ', 110.0000,1,     0.000,     0.000,   3,   1,1.02593,  -5.0404,   1
  1891,'CAULSTOW    ', 110.0000,1,     0.000,     0.000,  10,   1,1.03970,  -9.1199,   1
  1901,'CARLOW      ', 110.0000,1,     0.000,     0.000,   6,   1,1.07321,  -5.5357,   1
  1911,'CUILLEEN    ', 110.0000,1,     0.000,     0.000,   9,   1,1.05660,  -4.6791,   1
  1921,'COW CROS    ', 110.0000,1,     0.000,     0.000,   3,   1,1.03815,  -3.5481,   1
  1931,'CUNGHILL    ', 110.0000,1,     0.000,     0.000,   9,   1,1.05010,  -7.3175,   4
  1941,'CUSHALIN    ', 110.0000,1,     0.000,     0.000,   8,   1,1.07500,  -3.2221,   1
  1951,'CARROWBE    ', 110.0000,1,     0.000,     0.000,   9,   1,1.03714,  -7.9344,   1
  1961,'CASTLEVI    ', 110.0000,1,     0.000,     0.000,   3,   1,1.03715,  -3.7767,   1
  1971,'COOMAGEA    ', 110.0000,1,     0.000,     0.000,   7,   1,1.05000,   3.7380,   4
  1981,'CORRACLA    ', 110.0000,1,     0.000,     0.000,   9,   1,1.04028, -11.3959,   1
  1991,'CASTLEDO    ', 110.0000,1,     0.000,     0.000,   6,   1,1.06743,  -3.6523,   1
  2001,'CULLENAG    ', 110.0000,1,     0.000,     0.000,   5,   1,1.05874,  -4.7969,   1
  2002,'CULLENAG    ', 220.0000,1,     0.000,     0.000,   5,   1,1.06870,  -1.9485,   1
  2011,'KNOCKNAG    ', 110.0000,1,     0.000,     0.000,   3,   1,1.03907,  -3.3773,   1
  2021,'CITY WES    ', 110.0000,1,     0.000,     0.000,   1,   1,1.03786, -10.1594,   2
  2041,'CORDUFF     ', 110.0000,1,     0.000,     0.000,   2,   1,1.05727,  -7.6026,   1
  2042,'CORDUFF     ', 220.0000,1,     0.000,     0.000,   2,   1,1.07500,  -5.0063,   1
  2051,'BLACKPOO    ', 110.0000,1,     0.000,     0.000,   3,   1,1.03288,  -4.3445,   1
  2052,'CORDUFFB    ', 220.0000,1,     0.000,     0.000,   2,   1,1.07500,  -5.0063,   1
  2081,'DUNKETTL    ', 110.0000,4,     0.000,     0.000,   3,   1,1.00000,   0.0000,   5
  2090,'WEST GAL    ', 110.0000,1,     0.000,     0.000,   9,   1,1.05489,  -1.3363,   1
  2091,'WEST GAL    ', 110.0000,1,     0.000,     0.000,   9,   1,1.05944,  -3.0583,   1
  2101,'DUNDALK     ', 110.0000,1,     0.000,     0.000,  10,   1,1.04533,  -8.8244,   2
  2111,'UGOOL       ', 110.0000,1,     0.000,     0.000,   9,   1,1.05000,  -0.6668,   1
  2121,'DRUMLINE    ', 110.0000,1,     0.000,     0.000,   4,   1,1.04518,  -4.3278,   1
  2131,'DROMADA     ', 110.0000,1,     0.000,     0.000,   3,   1,1.05000,   3.8235,   1
  2141,'DUNGARVA    ', 110.0000,1,     0.000,     0.000,   5,   1,1.04332,  -5.4818,   1
  2161,'DOON        ', 110.0000,1,     0.000,     0.000,   5,   1,1.04878,  -6.4300,   1
  2181,'DRYBRIDG    ', 110.0000,1,     0.000,     0.000,  10,   1,1.03980,  -9.1485,   1
  2202,'DUNSTOWN    ', 220.0000,1,     0.000,     0.000,   2,   1,1.07702,  -4.0863,   1
  2204,'DUNSTOWN    ', 380.0000,1,     0.000,     0.000,   2,   1,1.05553,  -2.4550,   1
  2221,'DUNMANWA    ', 110.0000,1,     0.000,     0.000,   3,   1,1.03767,  -3.5710,   1
  2231,'DERRYBRI    ', 110.0000,1,     0.000,     0.000,   4,   1,1.06275,  -1.6904,   2
  2241,'DALLOW      ', 110.0000,1,     0.000,     0.000,   5,   1,1.06514,  -3.6257,   2
  2251,'DARDISTO    ', 110.0000,1,     0.000,     0.000,   1,   1,1.07083,  -7.8689,   2
  2261,'DERRYIRO    ', 110.0000,1,     0.000,     0.000,   8,   1,1.04966,  -6.5128,   1
  2281,'DALTON      ', 110.0000,1,     0.000,     0.000,   9,   1,1.04945,  -5.5764,   1
  2301,'DUNFIRTH    ', 110.0000,1,     0.000,     0.000,   8,   1,1.05140,  -7.2927,   2
  2321,'DRUMKEEN    ', 110.0000,1,     0.000,     0.000,   9,   1,1.04583, -11.0696,   1
  2361,'ENNIS       ', 110.0000,1,     0.000,     0.000,   4,   1,1.04951,  -3.5584,   1
  2391,'KILL HIL    ', 110.0000,1,     0.000,     0.000,   5,   1,1.05916,  -5.6265,   1
  2401,'MOUNTLUC    ', 110.0000,1,     0.000,     0.000,   8,   1,1.05783,  -3.7121,   1
  2411,'KNOCKMUL    ', 110.0000,1,     0.000,     0.000,   6,   1,1.05903,  -4.9454,   1
  2481,'FASS EAS    ', 110.0000,1,     0.000,     0.000,   2,   1,1.05904,  -6.3750,   2
  2491,'FASS WES    ', 110.0000,1,     0.000,     0.000,   2,   1,1.05928,  -6.3640,   2
  2521,'FLAGFORD    ', 110.0000,1,     0.000,     0.000,   9,   1,1.04923,  -6.8444,   1
  2522,'FLAGFORD    ', 220.0000,1,     0.000,     0.000,   9,   1,1.05453,  -5.0124,   1
  2541,'FRN ST A    ', 110.0000,1,     0.000,     0.000,   1,   1,1.07289,  -6.6978,   2
  2551,'FRN ST B    ', 110.0000,1,     0.000,     0.000,   1,   1,1.06872,  -7.8521,   2
  2561,'FIN_URBA    ', 110.0000,1,     0.000,     0.000,   2,   1,1.05994,  -7.5568,   2
  2562,'FINGLAS     ', 220.0000,1,     0.000,     0.000,   2,   1,1.07599,  -5.3432,   1
  2563,'FINGLAS2    ', 220.0000,1,     0.000,     0.000,   2,   1,1.07599,  -5.3432,   1
  2571,'FIN_RURA    ', 110.0000,1,     0.000,     0.000,   2,   1,1.07050,  -7.7913,   2
  2581,'KILDONAN    ', 110.0000,1,     0.000,     0.000,   2,   1,1.05598,  -7.7652,   2
  2671,'GARVAGH     ', 110.0000,1,     0.000,     0.000,   9,   1,1.05008,  -6.7031,   4
  2681,'GILRA       ', 110.0000,1,     0.000,     0.000,   9,   1,1.05121,  -7.1335,   2
  2701,'GLASMORE    ', 110.0000,1,     0.000,     0.000,   1,   1,1.05356,  -8.8827,   2
  2721,'GRIFFINR    ', 110.0000,1,     0.000,     0.000,   2,   1,1.06095,  -6.7930,   2
  2731,'GLANLEE     ', 110.0000,1,     0.000,     0.000,   7,   1,1.05005,   3.7560,   4
  2741,'GREAT IS    ', 110.0000,1,     0.000,     0.000,   6,   1,1.06338,  -4.6065,   1
  2742,'GREAT IS    ', 220.0000,1,     0.000,     0.000,   6,   1,1.07500,  -1.4409,   1
  2761,'GRANGE      ', 110.0000,1,     0.000,     0.000,   1,   1,1.07058,  -7.8842,   2
  2771,'GARROW      ', 110.0000,1,     0.000,     0.000,   7,   1,1.04848,   3.0771,   7
  2780,'GALWAY      ', 110.0000,1,     0.000,     0.000,   9,   1,1.06191,  -2.6192,   1
  2781,'GALWAY      ', 110.0000,1,     0.000,     0.000,   9,   1,1.06191,  -2.6192,   1
  2801,'GOLAGH      ', 110.0000,1,     0.000,     0.000,   9,   1,1.04758, -10.0281,   4
  2821,'GORTAWEE    ', 110.0000,1,     0.000,     0.000,   9,   1,1.03947, -11.4466,   1
  2841,'GORMAN      ', 110.0000,1,     0.000,     0.000,  10,   1,1.03968,  -8.9868,   1
  2842,'GORMAN      ', 220.0000,1,     0.000,     0.000,  10,   1,1.05315,  -6.4132,   1
  2852,'GLANAGOW    ', 220.0000,1,     0.000,     0.000,   3,   1,1.05179,  -0.9292,   1
  2861,'GRANGE C    ', 110.0000,1,     0.000,     0.000,   1,   1,1.03842,  -9.9814,   2
  2870,'CLOGHER     ', 110.0000,1,     0.000,     0.000,   9,   1,1.04894,  -9.9983,   1
  2871,'CLOGHER     ', 110.0000,1,     0.000,     0.000,   9,   1,1.04894,  -9.9983,   1
  2881,'GLENLARA    ', 110.0000,1,     0.000,     0.000,   3,   1,1.02019,  -5.2199,   2
  2941,'HAROLDS     ', 110.0000,1,     0.000,     0.000,   1,   1,1.07320,  -6.7013,   2
  2951,'HEUSTON     ', 110.0000,1,     0.000,     0.000,   1,   1,1.06892,  -7.8372,   2
  2962,'HUNTSTOW    ', 220.0000,1,     0.000,     0.000,   2,   1,1.07600,  -5.3433,   4
  2972,'HUNTSTOW    ', 220.0000,1,     0.000,     0.000,   2,   1,1.07416,  -4.7036,   4
  2981,'HARTNETT    ', 110.0000,1,     0.000,     0.000,   3,   1,1.03847,  -3.3588,   2
  3061,'INISCARR    ', 110.0000,1,     0.000,     0.000,   3,   1,1.03522,  -4.0107,   1
  3081,'INCH_CIT    ', 110.0000,1,     0.000,     0.000,   2,   1,1.06927,  -7.7987,   2
  3082,'INCHICOR    ', 220.0000,1,     0.000,     0.000,   2,   1,1.07451,  -5.8815,   1
  3091,'INCH_COU    ', 110.0000,1,     0.000,     0.000,   2,   1,1.04338,  -9.7770,   2
  3101,'IKERRIN     ', 110.0000,1,     0.000,     0.000,   5,   1,1.05317,  -5.4054,   2
  3122,'IRISHTOW    ', 220.0000,1,     0.000,     0.000,   2,   1,1.07500,  -5.1706,   1
  3190,'NORTH KE    ', 110.0000,1,     0.000,     0.000,   7,   1,1.05423,  -1.5254,   1
  3191,'NORTH KE    ', 110.0000,1,     0.000,     0.000,   7,   1,1.05328,   3.1012,   1
  3192,'NORTH KE    ', 220.0000,1,     0.000,     0.000,   7,   1,1.07059,   1.7142,   1
  3194,'NORTH KE    ', 380.0000,1,     0.000,     0.000,   7,   1,1.07441,   2.3050,   1
  3200,'KNOCKRAH    ', 110.0000,1,     0.000,     0.000,   3,   1,1.05114,  -1.0673,   1
  3201,'KNOCKRAH    ', 110.0000,1,     0.000,     0.000,   3,   1,1.04206,  -3.5594,   1
  3202,'KNOCKRAH    ', 220.0000,1,     0.000,     0.000,   3,   1,1.05114,  -1.0673,   1
  3203,'KNOCKRAH    ', 220.0000,1,     0.000,     0.000,   3,   1,1.05114,  -1.0673,   1
  3209,'KNOCKRAH    ', 110.0000,1,     0.000,     0.000,   3,   1,1.04206,  -3.5594,   1
  3211,'KNOCKAVA    ', 110.0000,1,     0.000,     0.000,   4,   1,1.06228,  -1.7552,   1
  3221,'KILBARRY    ', 110.0000,1,     0.000,     0.000,   3,   1,1.03292,  -4.3420,   1
  3241,'KILTEEL     ', 110.0000,1,     0.000,     0.000,   8,   1,1.06234,  -7.4891,   2
  3251,'REAMORE     ', 110.0000,1,     0.000,     0.000,   7,   1,1.05518,  -1.9318,   1
  3261,'KILKENNY    ', 110.0000,1,     0.000,     0.000,   6,   1,1.06126,  -6.7292,   1
  3281,'KILLONAN    ', 110.0000,1,     0.000,     0.000,   7,   1,1.04557,  -3.7595,   1
  3282,'KILLONAN    ', 220.0000,1,     0.000,     0.000,   7,   1,1.05746,  -2.1416,   1
  3301,'KNOCKERA    ', 110.0000,1,     0.000,     0.000,   7,   1,1.03586,  -3.6680,   1
  3321,'KNOCKUMB    ', 110.0000,1,     0.000,     0.000,  10,   1,1.03111,  -9.5116,   5
  3330,'BALLYNAH    ', 110.0000,1,     0.000,     0.000,   3,   1,1.05160,   3.1254,   1
  3331,'BALLYNAH    ', 110.0000,1,     0.000,     0.000,   3,   1,1.05160,   3.1254,   1
  3332,'BALLYNAH    ', 220.0000,1,     0.000,     0.000,   3,   1,1.05945,   1.8896,   1
  3341,'KELLIS      ', 110.0000,1,     0.000,     0.000,   6,   1,1.07756,  -5.4405,   1
  3342,'KELLIS      ', 220.0000,1,     0.000,     0.000,   6,   1,1.06555,  -3.6385,   1
  3361,'KILTOY      ', 110.0000,1,     0.000,     0.000,   9,   1,1.04101, -11.7400,   5
  3381,'KINNEGAD    ', 110.0000,1,     0.000,     0.000,   8,   1,1.04754,  -7.1201,   1
  3391,'KNOCKACU    ', 110.0000,1,     0.000,     0.000,   3,   1,1.05000,   4.1964,   1
  3401,'KILLOTER    ', 110.0000,1,     0.000,     0.000,   5,   1,1.05643,  -5.1505,   1
  3421,'KILMORE     ', 110.0000,1,     0.000,     0.000,   1,   1,1.07081,  -7.8680,   2
  3431,'KILMAHUD    ', 110.0000,1,     0.000,     0.000,   1,   1,1.03815,  -9.9989,   1
  3461,'KILPADDO    ', 110.0000,1,     0.000,     0.000,   7,   1,1.05949,  -1.0273,   1
  3462,'KILPADDO    ', 220.0000,1,     0.000,     0.000,   7,   1,1.07395,   0.7663,   1
...
0 / END OF BUS DATA, BEGIN LOAD DATA
    10,'LD',1,   2,   1,    45.300,    31.140,     0.000,     0.000,     0.000,     0.000,   2
    11,'LD',1,   2,   1,    30.360,    21.560,     0.000,     0.000,     0.000,     0.000,   2
    12,'LD',1,   1,   1,     5.140,     1.690,     0.000,     0.000,     0.000,     0.000,   2
    13,'LD',1,   1,   1,     8.630,     2.960,     0.000,     0.000,     0.000,     0.000,   2
    14,'LD',1,   2,   1,    42.760,    14.060,     0.000,     0.000,     0.000,     0.000,   2
    15,'LD',1,   2,   1,    44.890,    14.780,     0.000,     0.000,     0.000,     0.000,   2
  1041,'LD',1,   3,   1,     1.360,     0.070,     0.000,     0.000,     0.000,     0.000,   2
  1101,'I ',1,   5,   2,    11.000,     6.000,     0.000,     0.000,     0.000,     0.000,   5
  1101,'MI',1,   5,   2,     5.620,    -1.020,     0.000,     0.000,     0.000,     0.000,   5
  4341,'I ',1,   3,   2,     1.300,     0.390,     0.000,     0.000,     0.000,     0.000,   5
 10204,'LD',1,   4,   1,    13.170,     7.370,     0.000,     0.000,     0.000,     0.000,   2
 10205,'LD',1,   4,   1,    13.170,     7.370,     0.000,     0.000,     0.000,     0.000,   2
 10470,'HL',0,   3,   1,    11.070,     3.980,     0.000,     0.000,     0.000,     0.000,   1
 10471,'HL',0,   3,   1,    11.990,     4.310,     0.000,     0.000,     0.000,     0.000,   3
 10602,'LD',1,   9,   1,     5.310,     1.300,     0.000,     0.000,     0.000,     0.000,   2
 10801,'LD',1,   7,   1,     4.900,     1.080,     0.000,     0.000,     0.000,     0.000,   2
 10901,'I ',1,   1,   2,     9.500,     3.120,     0.000,     0.000,     0.000,     0.000,   5
 10901,'LD',1,   1,   1,     5.890,     1.910,     0.000,     0.000,     0.000,     0.000,   2
 11201,'LD',1,   6,   1,     6.220,     2.040,     0.000,     0.000,     0.000,     0.000,   2
 11204,'LD',1,   6,   1,    10.100,     3.320,     0.000,     0.000,     0.000,     0.000,   2
 11404,'LD',1,   9,   1,    52.330,    11.300,     0.000,     0.000,     0.000,     0.000,   2
 12001,'LD',1,   1,   1,    11.970,     1.850,     0.000,     0.000,     0.000,     0.000,   2
 12201,'LD',1,   8,   1,    13.350,     3.530,     0.000,     0.000,     0.000,     0.000,   2
 12702,'LD',1,  10,   1,    11.760,     1.580,     0.000,     0.000,     0.000,     0.000,   2
 12804,'LD',1,   3,   1,     3.950,     1.280,     0.000,     0.000,     0.000,     0.000,   2
 13001,'LD',1,   6,   1,    10.440,     3.410,     0.000,     0.000,     0.000,     0.000,   2
 13204,'LD',1,   8,   1,     7.150,     1.300,     0.000,     0.000,     0.000,     0.000,   2
 13404,'LD',1,   9,   1,    14.710,     4.820,     0.000,     0.000,     0.000,     0.000,   2
 13501,'I ',1,   8,   2,     9.500,     2.850,     0.000,     0.000,     0.000,     0.000,   5
 13501,'LD',1,   8,   1,    11.400,     3.650,     0.000,     0.000,     0.000,     0.000,   2
 13601,'I ',1,   5,   2,     5.290,     1.460,     0.000,     0.000,     0.000,     0.000,   5
 13601,'MI',1,   5,   2,     3.920,     1.300,     0.000,     0.000,     0.000,     0.000,   5
 13604,'LD',1,   5,   1,    11.430,     4.240,     0.000,     0.000,     0.000,     0.000,   2
 13802,'LD',1,   3,   1,    19.840,     5.560,     0.000,     0.000,     0.000,     0.000,   2
 13804,'LD',1,   3,   1,    16.910,     4.790,     0.000,     0.000,     0.000,     0.000,   2
 14004,'LD',1,   9,   1,     9.520,     3.860,     0.000,     0.000,     0.000,     0.000,   2
 14204,'LD',1,   1,   1,    28.460,    -0.050,     0.000,     0.000,     0.000,     0.000,   2
 14304,'LD',1,   6,   1,    22.250,     7.290,     0.000,     0.000,     0.000,     0.000,   2
 14401,'LD',1,   3,   1,     5.170,     1.950,     0.000,     0.000,     0.000,     0.000,   2
 14404,'LD',1,   3,   1,    34.920,    12.230,     0.000,     0.000,     0.000,     0.000,   2
 14502,'I ',1,   1,   2,    23.750,     7.800,     0.000,     0.000,     0.000,     0.000,   5
 14604,'LD',1,   5,   1,    21.810,     4.520,     0.000,     0.000,     0.000,     0.000,   2
 14804,'LD',1,   5,   1,    31.140,     6.740,     0.000,     0.000,     0.000,     0.000,   2
 14902,'HL',0,  10,   1,     4.940,     1.780,     0.000,     0.000,     0.000,     0.000,   1
 15001,'I ',1,   3,   2,     4.590,     1.700,     0.000,     0.000,     0.000,     0.000,   5
 15001,'MI',1,   3,   2,     1.580,     0.150,     0.000,     0.000,     0.000,     0.000,   5
 15402,'LD',1,   6,   1,    14.310,     4.700,     0.000,     0.000,     0.000,     0.000,   2
 15704,'LD',1,   9,   1,    13.550,     4.490,     0.000,     0.000,     0.000,     0.000,   2
 15801,'LD',1,   1,   1,     7.200,     2.370,     0.000,     0.000,     0.000,     0.000,   2
 16202,'LD',1,   3,   1,    13.650,     1.450,     0.000,     0.000,     0.000,     0.000,   2
 16604,'LD',1,   9,   1,    29.460,     7.850,     0.000,     0.000,     0.000,     0.000,   2
 16901,'LD',1,   1,   1,     8.150,     1.280,     0.000,     0.000,     0.000,     0.000,   2
 17004,'LD',1,   9,   1,     4.360,     1.440,     0.000,     0.000,     0.000,     0.000,   2
 17204,'LD',1,   5,   1,    31.310,     8.910,     0.000,     0.000,     0.000,     0.000,   2
 17404,'LD',1,   2,   1,    53.940,    28.100,     0.000,     0.000,     0.000,     0.000,   2
 17802,'I ',1,   7,   2,    49.000,    14.700,     0.000,     0.000,     0.000,     0.000,   5
 17901,'LD',1,   8,   1,    11.850,     3.920,     0.000,     0.000,     0.000,     0.000,   2
 18001,'LD',1,   1,   1,     3.650,     1.190,     0.000,     0.000,     0.000,     0.000,   2
 18004,'LD',1,   1,   1,    49.830,     8.810,     0.000,     0.000,     0.000,     0.000,   2
 18204,'LD',1,   9,   1,    23.780,     9.700,     0.000,     0.000,     0.000,     0.000,   2
 18304,'LD',1,   9,   1,    12.760,     4.190,     0.000,     0.000,     0.000,     0.000,   2
 18402,'LD',1,   6,   1,     7.540,     2.420,     0.000,     0.000,     0.000,     0.000,   2
 18404,'LD',1,   6,   1,    18.140,     4.850,     0.000,     0.000,     0.000,     0.000,   2
 18504,'I ',1,   2,   2,    19.000,     6.240,     0.000,     0.000,     0.000,     0.000,   5
 18504,'LD',1,   2,   1,    24.250,     7.970,     0.000,     0.000,     0.000,     0.000,   2
 18604,'LD',1,   9,   1,    25.970,     5.850,     0.000,     0.000,     0.000,     0.000,   2
 18701,'LD',1,   2,   1,    23.920,     4.400,     0.000,     0.000,     0.000,     0.000,   2
 18804,'LD',1,   3,   1,    15.260,     5.330,     0.000,     0.000,     0.000,     0.000,   2
 18901,'HL',0,  10,   1,     0.980,     0.350,     0.000,     0.000,     0.000,     0.000,   1
 19004,'LD',1,   6,   1,    27.690,     9.110,     0.000,     0.000,     0.000,     0.000,   2
 19204,'LD',1,   3,   1,    14.720,     2.750,     0.000,     0.000,     0.000,     0.000,   2
 19471,'HL',1,   8,   1,    11.700,     4.210,     0.000,     0.000,     0.000,     0.000,   4
 19504,'LD',1,   9,   1,    23.140,     6.170,     0.000,     0.000,     0.000,     0.000,   2
 19601,'LD',1,   3,   1,    28.390,     7.600,     0.000,     0.000,     0.000,     0.000,   2
 20201,'LD',1,   1,   1,    29.290,    11.040,     0.000,     0.000,     0.000,     0.000,   2
 20501,'LD',1,   3,   1,    18.230,     5.740,     0.000,     0.000,     0.000,     0.000,   2
 21004,'LD',1,  10,   1,    29.560,     5.270,     0.000,     0.000,     0.000,     0.000,   2
 21202,'LD',1,   4,   1,     9.850,     3.190,     0.000,     0.000,     0.000,     0.000,   2
 21204,'LD',1,   4,   1,    20.530,     7.230,     0.000,     0.000,     0.000,     0.000,   2
 21404,'LD',1,   5,   1,    34.190,     6.740,     0.000,     0.000,     0.000,     0.000,   2
 21604,'LD',1,   5,   1,    13.040,     4.290,     0.000,     0.000,     0.000,     0.000,   2
 21804,'LD',1,  10,   1,    62.000,    16.310,     0.000,     0.000,     0.000,     0.000,   2
 22204,'LD',1,   3,   1,    19.800,     9.680,     0.000,     0.000,     0.000,     0.000,   2
 22404,'LD',1,   5,   1,    15.480,     4.740,     0.000,     0.000,     0.000,     0.000,   2
 22501,'I ',1,   1,   2,    10.450,     3.434,     0.000,     0.000,     0.000,     0.000,   5
 22671,'HL',0,   8,   1,     0.300,     0.100,     0.000,     0.000,     0.000,     0.000,   1
 22672,'HL',0,   8,   1,     0.300,     0.100,     0.000,     0.000,     0.000,     0.000,   1
 22804,'LD',1,   9,   1,    21.310,     5.940,     0.000,     0.000,     0.000,     0.000,   2
 23001,'LD',1,   8,   1,     6.370,     0.600,     0.000,     0.000,     0.000,     0.000,   2
 23604,'LD',1,   4,   1,    51.230,    14.230,     0.000,     0.000,     0.000,     0.000,   2
 24104,'LD',1,   6,   1,    14.720,     4.830,     0.000,     0.000,     0.000,     0.000,   2
 24804,'LD',1,   2,   1,    41.310,    16.250,     0.000,     0.000,     0.000,     0.000,   2
 25604,'LD',1,   2,   1,    52.580,    10.880,     0.000,     0.000,     0.000,     0.000,   2
 26802,'I ',1,   9,   2,    10.440,     3.130,     0.000,     0.000,     0.000,     0.000,   5
 26802,'MI',1,   9,   2,     0.060,     0.020,     0.000,     0.000,     0.000,     0.000,   5
 27004,'LD',1,   1,   1,    58.560,    17.320,     0.000,     0.000,     0.000,     0.000,   2
 27204,'LD',1,   2,   1,    40.210,    11.900,     0.000,     0.000,     0.000,     0.000,   2
 27404,'LD',1,   6,   1,     1.780,     0.590,     0.000,     0.000,     0.000,     0.000,   2
 27474,'HL',1,   6,   1,     5.430,     1.950,     0.000,     0.000,     0.000,     0.000,   1
 27604,'LD',1,   1,   1,    39.330,    10.700,     0.000,     0.000,     0.000,     0.000,   2
 27801,'LD',1,   9,   1,    22.090,     6.150,     0.000,     0.000,     0.000,     0.000,   2
 27804,'LD',1,   9,   1,    47.360,     5.610,     0.000,     0.000,     0.000,     0.000,   2
 28201,'I ',1,   9,   2,    20.900,     6.270,     0.000,     0.000,     0.000,     0.000,   5
 28204,'LD',1,   9,   1,    12.980,     4.080,     0.000,     0.000,     0.000,     0.000,   2
 28571,'HL',1,   3,   1,     3.600,     1.290,     0.000,     0.000,     0.000,     0.000,   1
 28601,'I ',1,   1,   2,     9.000,     2.700,     0.000,     0.000,     0.000,     0.000,   5
 28601,'LD',1,   1,   1,    10.740,     1.370,     0.000,     0.000,     0.000,     0.000,   2
 28604,'LD',1,   1,   1,    45.960,    11.880,     0.000,     0.000,     0.000,     0.000,   2
 28611,'I ',1,   1,   2,     9.000,     2.700,     0.000,     0.000,     0.000,     0.000,   5
 28804,'LD',1,   3,   1,    12.550,     3.570,     0.000,     0.000,     0.000,     0.000,   2
 29401,'LD',1,   1,   1,    22.200,     6.150,     0.000,     0.000,     0.000,     0.000,   2
 29501,'LD',1,   1,   1,     5.200,     1.640,     0.000,     0.000,     0.000,     0.000,   2
 29672,'HL',0,   2,   1,     7.180,     2.580,     0.000,     0.000,     0.000,     0.000,   4
 29801,'LD',1,   3,   1,     8.120,     2.640,     0.000,     0.000,     0.000,     0.000,   2
 30804,'LD',1,   2,   1,    34.120,    11.290,     0.000,     0.000,     0.000,     0.000,   2
 31004,'LD',1,   5,   1,    34.180,    12.180,     0.000,     0.000,     0.000,     0.000,   2
 31271,'HL',1,   2,   1,     5.040,     1.810,     0.000,     0.000,     0.000,     0.000,   4
 32201,'LD',1,   3,   1,    11.260,     2.630,     0.000,     0.000,     0.000,     0.000,   2
 32204,'LD',1,   3,   1,    49.270,     6.260,     0.000,     0.000,     0.000,     0.000,   2
 32404,'LD',1,   8,   1,    29.870,    11.770,     0.000,     0.000,     0.000,     0.000,   2
 32604,'LD',1,   6,   1,    53.380,    22.450,     0.000,     0.000,     0.000,     0.000,   2
 33004,'LD',1,   7,   1,    36.930,    10.850,     0.000,     0.000,     0.000,     0.000,   2
 33201,'I ',1,  10,   2,    23.000,     6.900,     0.000,     0.000,     0.000,     0.000,   5
 33201,'MI',1,  10,   2,     6.440,     1.930,     0.000,     0.000,     0.000,     0.000,   5
 33801,'I ',1,   8,   2,    10.220,     3.060,     0.000,     0.000,     0.000,     0.000,   5
 33801,'MI',1,   8,   2,     1.500,     0.450,     0.000,     0.000,     0.000,     0.000,   5
 34001,'LD',1,   5,   1,    10.380,     2.890,     0.000,     0.000,     0.000,     0.000,   2
 34201,'LD',1,   1,   1,    14.770,     4.600,     0.000,     0.000,     0.000,     0.000,   2
 34301,'I ',1,   1,   2,    23.750,     7.120,     0.000,     0.000,     0.000,     0.000,   5
 35004,'LD',1,   9,   1,    12.070,     3.760,     0.000,     0.000,     0.000,     0.000,   2
 35074,'HL',1,   9,   1,     9.000,     3.240,     0.000,     0.000,     0.000,     0.000,   3
 35404,'LD',1,   7,   1,    74.290,    14.670,     0.000,     0.000,     0.000,     0.000,   2
 35604,'LD',1,  10,   1,    25.690,     7.640,     0.000,     0.000,     0.000,     0.000,   2
 35804,'LD',1,   9,   1,    39.370,     9.680,     0.000,     0.000,     0.000,     0.000,   2
 36001,'LD',1,   3,   1,    23.740,     6.690,     0.000,     0.000,     0.000,     0.000,   2
 36201,'I ',1,   5,   2,    16.600,     3.600,     0.000,     0.000,     0.000,     0.000,   5
 36201,'MI',1,   5,   2,     2.390,     2.100,     0.000,     0.000,     0.000,     0.000,   5
 37501,'LD',1,   1,   1,    22.260,     4.030,     0.000,     0.000,     0.000,     0.000,   2
 37601,'LD',1,   1,   1,    21.980,     4.100,     0.000,     0.000,     0.000,     0.000,   2
 37602,'I ',1,   1,   2,     5.000,     1.500,     0.000,     0.000,     0.000,     0.000,   5
 37602,'MI',1,   1,   2,     5.440,     1.630,     0.000,     0.000,     0.000,     0.000,   5
 38001,'LD',1,   3,   1,    11.640,     2.610,     0.000,     0.000,     0.000,     0.000,   2
 38004,'LD',1,   3,   1,     6.520,     1.770,     0.000,     0.000,     0.000,     0.000,   2
 38204,'LD',1,  10,   1,    26.430,    12.310,     0.000,     0.000,     0.000,     0.000,   2
 38601,'LD',1,   1,   1,     5.760,     0.960,     0.000,     0.000,     0.000,     0.000,   2
 38701,'LD',1,   1,   1,     7.950,     1.170,     0.000,     0.000,     0.000,     0.000,   2
 38804,'LD',1,   3,   1,     4.260,    -0.110,     0.000,     0.000,     0.000,     0.000,   2
 39471,'HL',1,   4,   1,    17.910,     6.440,     0.000,     0.000,     0.000,     0.000,   3
 39472,'HL',1,   4,   1,    17.910,     6.440,     0.000,     0.000,     0.000,     0.000,   3
 39473,'HL',1,   4,   1,    17.910,     6.440,     0.000,     0.000,     0.000,     0.000,   3
 39601,'LD',1,   3,   1,    16.960,     3.560,     0.000,     0.000,     0.000,     0.000,   2
 39675,'HL',0,   3,   1,     5.000,     1.800,     0.000,     0.000,     0.000,     0.000,   3
 39801,'I ',1,   7,   2,    22.000,     6.600,     0.000,     0.000,     0.000,     0.000,   5
 39801,'MI',1,   7,   2,     1.500,     0.450,     0.000,     0.000,     0.000,     0.000,   5
 40001,'LD',1,   9,   1,    12.990,     4.100,     0.000,     0.000,     0.000,     0.000,   2
 40004,'LD',1,   9,   1,    25.690,     8.230,     0.000,     0.000,     0.000,     0.000,   2
 40204,'LD',1,   3,   1,    18.580,     6.460,     0.000,     0.000,     0.000,     0.000,   2
 40404,'LD',1,   9,   1,    18.550,     4.150,     0.000,     0.000,     0.000,     0.000,   2
 40602,'I ',1,  10,   2,     5.180,     1.550,     0.000,     0.000,     0.000,     0.000,   5
 40602,'MI',1,  10,   2,     2.420,     0.730,     0.000,     0.000,     0.000,     0.000,   5
 40604,'LD',1,  10,   1,    26.850,     8.820,     0.000,     0.000,     0.000,     0.000,   2
 40801,'LD',1,   8,   1,     8.460,     1.780,     0.000,     0.000,     0.000,     0.000,   2
 41002,'I ',1,   1,   2,    18.000,     5.900,     0.000,     0.000,     0.000,     0.000,   5
 41102,'I ',1,   1,   2,    24.000,    11.630,     0.000,     0.000,     0.000,     0.000,   5
 42004,'LD',1,   8,   1,    20.120,     5.940,     0.000,     0.000,     0.000,     0.000,   2
 42102,'LD',1,   1,   1,    14.000,     2.250,     0.000,     0.000,     0.000,     0.000,   2
 42204,'LD',1,  10,   1,    44.330,    12.020,     0.000,     0.000,     0.000,     0.000,   2
 42501,'HL',0,   6,   1,     3.970,     1.430,     0.000,     0.000,     0.000,     0.000,   1
 42604,'LD',1,   7,   1,    25.980,     8.570,     0.000,     0.000,     0.000,     0.000,   2
 42802,'I ',1,   1,   2,    26.000,     7.800,     0.000,     0.000,     0.000,     0.000,   5
 43604,'LD',1,   7,   1,    21.590,     4.890,     0.000,     0.000,     0.000,     0.000,   2
 44001,'LD',1,   1,   1,    15.750,     2.300,     0.000,     0.000,     0.000,     0.000,   2
 44802,'LD',1,   8,   1,     8.660,     2.830,     0.000,     0.000,     0.000,     0.000,   2
 44804,'LD',1,   8,   1,    31.850,    10.130,     0.000,     0.000,     0.000,     0.000,   2
 44901,'LD',1,   1,   1,    11.130,     1.130,     0.000,     0.000,     0.000,     0.000,   2
 45001,'I ',1,  10,   2,    29.000,     9.100,     0.000,     0.000,     0.000,     0.000,   5
 45001,'MI',1,  10,   2,     3.290,     0.580,     0.000,     0.000,     0.000,     0.000,   5
 45101,'LD',1,   1,   1,    12.410,     2.250,     0.000,     0.000,     0.000,     0.000,   2
 46102,'I ',1,   7,   2,    61.000,    18.300,     0.000,     0.000,     0.000,     0.000,   5
 46210,'I ',1,   2,   2,    34.840,    10.450,     0.000,     0.000,     0.000,     0.000,   5
 46214,'I ',1,   2,   2,    34.840,    10.450,     0.000,     0.000,     0.000,     0.000,   5
 46224,'I ',1,   2,   2,    34.840,    10.450,     0.000,     0.000,     0.000,     0.000,   5
 46501,'LD',1,   1,   1,     4.920,     3.110,     0.000,     0.000,     0.000,     0.000,   2
 46511,'HL',1,   1,   1,     9.360,     3.360,     0.000,     0.000,     0.000,     0.000,   1
 46804,'LD',1,   7,   1,    18.860,     7.110,     0.000,     0.000,     0.000,     0.000,   2
 47004,'LD',1,   9,   1,    25.760,     9.780,     0.000,     0.000,     0.000,     0.000,   2
 47402,'I ',1,   2,   2,    15.200,     4.560,     0.000,     0.000,     0.000,     0.000,   5
 47601,'LD',1,   3,   1,     2.170,     0.240,     0.000,     0.000,     0.000,     0.000,   2
 49001,'I ',1,   6,   2,     2.290,     0.680,     0.000,     0.000,     0.000,     0.000,   5
 49474,'HL',1,   5,   1,    12.890,     4.640,     0.000,     0.000,     0.000,     0.000,   3
 49501,'LD',1,   9,   1,    15.330,     2.100,     0.000,     0.000,     0.000,     0.000,   2
 49504,'LD',1,   9,   1,    23.710,     6.750,     0.000,     0.000,     0.000,     0.000,   2
 49604,'LD',1,  10,   1,    50.860,    18.780,     0.000,     0.000,     0.000,     0.000,   2
 49804,'LD',1,   9,   1,    47.900,    11.520,     0.000,     0.000,     0.000,     0.000,   2
 50004,'LD',1,   9,   1,    18.740,     5.900,     0.000,     0.000,     0.000,     0.000,   2
 50276,'HL',1,   2,   1,     5.880,     2.110,     0.000,     0.000,     0.000,     0.000,   3
 50301,'LD',1,   1,   1,    11.850,     3.890,     0.000,     0.000,     0.000,     0.000,   2
 50573,'HL',1,   7,   1,     0.980,     0.350,     0.000,     0.000,     0.000,     0.000,   4
 50574,'HL',1,   7,   1,     0.980,     0.350,     0.000,     0.000,     0.000,     0.000,   4
 50604,'LD',1,   6,   1,    16.290,     6.200,     0.000,     0.000,     0.000,     0.000,   2
...
0 / END OF LOAD DATA, BEGIN GENERATOR DATA
 10271,'1 ',    21.000,     0.000,    15.000,    -7.000,1.05000,  1021,    34.000,   0.00000,   0.22000,   0.00000,   0.00000,1.00000,0,   15.0,    21.000,     5.000,   3,1.0000
 10272,'2 ',    22.000,     0.000,    15.000,    -7.000,1.05000,  1021,    34.000,   0.00000,   0.22000,   0.00000,   0.00000,1.00000,0,   15.0,    22.000,     5.000,   3,1.0000
 10273,'3 ',    19.000,     0.000,    15.000,    -7.000,1.05000,  1021,    34.000,   0.00000,   0.22000,   0.00000,   0.00000,1.00000,0,   15.0,    19.000,     5.000,   3,1.0000
 10274,'4 ',    24.000,     0.000,    15.000,    -7.000,1.05000,  1021,    34.000,   0.00000,   0.22000,   0.00000,   0.00000,1.00000,0,   15.0,    24.000,     5.000,   3,1.0000
 10275,'3 ',     2.250,     0.000,     0.000,     0.000,1.05000,     0,     8.350,   0.00920,   0.16210,   0.00000,   0.00000,1.00000,1,    2.3,     7.500,     0.000,   7,1.0000
 10276,'2 ',     0.198,     0.000,     0.000,     0.000,1.05000,     0,     0.850,   0.00730,   0.13500,   0.00000,   0.00000,1.00000,1,    0.2,     0.660,     0.000,   7,1.0000
 10470,'1 ',   330.000,   -28.098,   270.000,  -170.000,1.05000,  1062,   500.000,   0.00270,   0.18000,   0.00000,   0.00000,1.00000,1,  250.0,   443.000,   222.000,   1,1.0000
 10471,'1 ',   270.000,     0.000,   159.000,   -75.000,1.05000,  1062,   318.800,   0.00000,   0.22500,   0.00000,   0.00000,1.00000,0,  153.0,   270.000,    40.000,   3,1.0000
 10472,'11',    90.000,     0.000,    60.000,   -30.000,1.05000,  1062,   100.900,   0.00000,   0.12500,   0.00000,   0.00000,1.00000,0,   60.0,    90.000,    13.000,   3,1.0000
 10473,'12',    90.000,     0.000,    60.000,   -30.000,1.05000,  1062,   100.900,   0.00000,   0.12500,   0.00000,   0.00000,1.00000,0,   60.0,    90.000,    13.000,   3,1.0000
 10474,'14',    90.000,     0.000,    60.000,   -30.000,1.05000,  1062,   100.900,   0.00000,   0.12500,   0.00000,   0.00000,1.00000,0,   60.0,    90.000,    13.000,   3,1.0000
 10671,'2 ',     1.440,    -1.940,    -1.940,    -1.940,1.04000,     0,     4.800,   0.02040,   0.33060,   0.00000,   0.00000,1.00000,1,    1.5,     4.800,     0.000,   7,1.0000
 10672,'3 ',     1.500,    -2.000,    -2.000,    -2.000,1.04000,     0,     6.000,   0.02040,   0.33060,   0.00000,   0.00000,1.00000,1,    1.6,     5.000,     0.000,   7,1.0000
 10673,'1 ',     0.360,    -0.480,    -0.480,    -0.480,1.05000,     0,     1.200,   0.02040,   0.33060,   0.00000,   0.00000,1.00000,1,    0.4,     1.200,     0.000,   7,1.0000
 10674,'5 ',     1.380,    -1.770,    -1.770,    -2.300,1.04000,     0,     4.600,   0.02570,   0.73700,   0.00000,   0.00000,1.00000,1,    1.7,     4.600,     0.000,   7,1.0000
 11204,'1 ',     1.000,     0.000,     0.000,     0.000,1.00000,     0,     1.600,   0.00000,   0.20000,   0.01000,   0.06000,1.00000,0,  100.0,     1.000,     0.000,   2,1.0000
 11271,'1 ',     7.560,     0.000,     0.000,     0.000,1.04000,     0,    28.000,   0.00320,   0.12400,   0.00000,   0.00000,1.00000,1,    7.9,    25.200,     0.000,   7,1.0000
 11370,'1 ',     6.600,    -3.246,     5.590,    -5.590,1.05000,  2131,    30.000,   0.00000,   0.57860,   0.00000,   0.00000,1.00000,1,    5.7,    22.000,     0.000,   7,1.0000
 11371,'1 ',    15.300,   -11.388,    20.000,   -20.000,1.05000,  2131,    66.000,   0.00000,   0.57860,   0.00000,   0.00000,1.00000,1,   20.0,    51.000,     0.000,   7,1.0000
 11374,'DW',     1.200,    -0.683,     1.310,    -1.310,1.05000,  2131,     4.000,   0.00900,   0.14800,   0.00000,   0.00000,1.00000,1,    1.2,     4.000,     0.000,   7,1.0000
 11375,'DW',     1.080,    -0.626,     1.180,    -1.180,1.05000,  2131,     4.000,   0.00900,   0.14800,   0.00000,   0.00000,1.00000,1,    1.1,     3.600,     0.000,   7,1.0000
 12371,'1 ',     9.450,    -7.000,     7.000,    -7.000,1.05000,  1231,    32.000,   0.02570,   0.73700,   0.00000,   0.00000,1.00000,1,    7.0,    31.500,     0.000,   7,1.0000
 12372,'2 ',     3.150,     0.000,     0.000,     0.000,1.05000,  1231,    10.000,   0.02570,   0.73700,   0.00000,   0.00000,1.00000,1,    3.5,    10.500,     0.000,   7,1.0000
 12571,'1 ',     5.835,     0.000,     0.000,     0.000,1.05000,  1251,    25.050,   0.00920,   0.16210,   0.00000,   0.00000,1.00000,1,    6.4,    19.450,     0.000,   7,1.0000
 12572,'TW',     0.900,    -0.990,     0.990,    -0.990,1.05000,  1251,     3.340,   0.00920,   0.16210,   0.00000,   0.00000,1.00000,1,    1.0,     3.000,     0.000,   7,1.0000
 12573,'TW',     2.700,    -2.960,     2.960,    -2.960,1.05000,  1251,    10.020,   0.00920,   0.16210,   0.00000,   0.00000,1.00000,1,    3.0,     9.000,     0.000,   7,1.0000
 12871,'DW',     0.690,     0.000,     0.000,    -0.660,1.05000,  1281,     2.300,   0.02570,   0.73700,   0.00000,   0.00000,1.00000,1,    0.6,     2.300,     0.000,   7,1.0000
 12872,'DW',     2.520,     0.000,     0.000,    -2.760,1.05000,  1281,     9.200,   0.02570,   0.73700,   0.00000,   0.00000,1.00000,1,    2.6,     8.400,     0.000,   7,1.0000
 12873,'1 ',     5.865,     0.000,     0.000,     0.000,1.05000,  1281,    20.700,   0.02570,   0.73700,   0.00000,   0.00000,1.00000,1,    6.1,    19.550,     0.000,   7,1.0000
 12874,'1 ',     2.550,     0.000,     0.000,     0.000,1.05000,  1281,     8.500,   0.00210,   0.08600,   0.00000,   0.00000,1.00000,1,    2.7,     8.500,     0.000,   7,1.0000
 13170,'1 ',     7.185,     0.000,     0.000,     0.000,1.05000,  1311,    25.300,   0.02570,   0.73700,   0.00000,   0.00000,1.00000,1,    4.6,    23.950,     0.000,   7,1.0000
 13171,'1 ',     3.000,     0.000,     0.000,     0.000,1.05000,  1311,    10.000,   0.00900,   0.14800,   0.00000,   0.00000,1.00000,1,    6.0,    10.000,     0.000,   7,1.0000
 13173,'DW',     2.550,     0.000,     0.000,     0.000,1.05000,  1311,    10.500,   0.00900,   0.14800,   0.00000,   0.00000,1.00000,1,    6.0,     8.500,     0.000,   7,1.0000
 13174,'DW',    10.755,     0.000,     0.000,     0.000,1.05000,  1311,    36.000,   0.02570,   0.73700,   0.00000,   0.00000,1.00000,1,   11.0,    35.850,     0.000,   7,1.0000
 13175,'DW',     3.450,     0.000,     0.000,     0.000,1.05000,  1311,    11.500,   0.02570,   0.73700,   0.00000,   0.00000,1.00000,1,    3.7,    11.500,     0.000,   7,1.0000
 13176,'DW',     5.400,     0.000,     0.000,     0.000,1.05000,  1311,    18.750,   0.00900,   0.16600,   0.00000,   0.00000,1.00000,1,    5.6,    18.000,     0.000,   7,1.0000
 13434,'10',     4.300,     0.000,     0.000,     0.000,1.00000,     0,     4.500,   0.00000,   0.20000,   0.00000,   0.10000,1.00000,0,    1.0,     4.300,     0.000,   1,1.0000
 13471,'1 ',     0.198,     0.000,     0.000,     0.000,1.05000,  1341,     0.660,   0.02040,   0.33060,   0.00000,   0.00000,1.00000,1,    0.2,     0.660,     0.000,   7,1.0000
 13472,'DW',     0.765,     0.000,     0.000,    -0.840,1.05000,  1341,     2.700,   0.03020,   0.86600,   0.00000,   0.00000,1.00000,1,    0.8,     2.550,     0.000,   7,1.0000
 13473,'4 ',     3.000,     0.000,     0.000,     0.000,1.05000,  1341,    10.000,   0.00320,   0.12400,   0.00000,   0.00000,1.00000,1,    4.7,    10.000,     0.000,   7,1.0000
 13474,'5 ',     1.800,     0.000,     0.000,     0.000,1.05000,  1341,     6.250,   0.00900,   0.16600,   0.00000,   0.00000,1.00000,1,    1.9,     6.000,     0.000,   7,1.0000
 13475,'6 ',     2.295,     0.000,     0.000,     0.000,1.05000,  1341,     7.650,   0.00730,   0.13500,   0.00000,   0.00000,1.00000,1,    2.4,     7.650,     0.000,   7,1.0000
 13476,'3 ',     3.570,     0.000,     0.000,     0.000,1.05000,  1341,    11.500,   0.02570,   0.73700,   0.00000,   0.00000,1.00000,1,    3.7,    11.900,     0.000,   7,1.0000
 13477,'2 ',     0.765,     0.000,     0.000,     0.000,1.05000,  1341,     2.700,   0.03020,   0.86600,   0.00000,   0.00000,1.00000,1,    0.8,     2.550,     0.000,   7,1.0000
 13479,'9 ',     1.020,     0.000,     0.000,     0.000,1.00000,     0,     3.400,   0.00730,   0.13500,   0.00000,   0.00000,1.00000,1,    1.1,     3.400,     0.000,   7,1.0000
 14073,'3 ',     1.935,    -2.400,    -2.400,    -2.400,1.04000,     0,     7.611,   0.02040,   0.33060,   0.00000,   0.00000,1.00000,1,    2.0,     6.450,     0.000,   7,1.0000
 14075,'1 ',    10.000,     0.000,     0.000,     0.000,1.00000,     0,    10.000,   0.00000,   0.15500,   0.00000,   0.00000,1.00000,0,    3.0,    10.000,     1.000,   1,1.0000
 14471,'1 ',     1.200,     0.000,     0.000,     0.000,1.04000,     0,     4.000,   0.00320,   0.12400,   0.00000,   0.00000,1.00000,1,    1.4,     4.000,     0.000,   7,1.0000
 14472,'1 ',     0.085,     0.000,     0.000,     0.000,1.00000,     0,     0.850,   0.00210,   0.08600,   0.00000,   0.00000,1.00000,1,    0.1,     0.850,     0.000,   1,1.0000
 14604,'1 ',     4.800,     0.000,     0.000,     0.000,1.05000,     0,     7.000,   0.00000,   0.15000,   0.00000,   0.10000,1.00000,0,    2.0,     4.800,     0.000,   5,1.0000
 14871,'1 ',     0.510,     0.000,     0.000,     0.000,1.05000,     0,     4.600,   0.02570,   0.73700,   0.00000,   0.00000,1.00000,1,    0.5,     1.700,     0.000,   7,1.0000
 14902,'OH',   450.000,     0.000,   279.000,  -178.000,1.07500,  3522,   540.000,   0.00000,   0.32770,   0.00000,   0.00000,1.00000,0,  279.0,   450.000,   225.000,   4,1.0000
 15171,'TW',    13.800,    -0.636,    15.120,   -15.120,1.05000,  1511,    46.000,   0.00900,   0.14800,   0.00000,   0.00000,1.00000,1,   15.3,    46.000,     0.000,   7,1.0000
 15172,'DW',     3.000,    -3.290,     3.290,    -3.290,1.00000,     0,    10.000,   0.00900,   0.14800,   0.00000,   0.00000,1.00000,1,    3.1,    10.000,     0.000,   7,1.0000
 15173,'DW',     0.765,    -0.840,     0.840,    -0.840,1.00000,     0,     2.550,   0.00730,   0.13500,   0.00000,   0.00000,1.00000,1,    0.8,     2.550,     0.000,   7,1.0000
 15174,'DW',     6.000,    -6.570,     6.570,    -6.570,1.00000,     0,    20.000,   0.00900,   0.14800,   0.00000,   0.00000,1.00000,1,    6.2,    20.000,     0.000,   7,1.0000
 15571,'DW',     1.785,    -1.960,     1.960,    -1.960,1.00000,     0,     5.950,   0.00730,   0.13500,   0.00000,   0.00000,1.00000,1,    1.9,     5.950,     0.000,   7,1.0000
 15572,'DW',     5.400,    -3.431,     5.920,    -5.920,1.00000,     0,    18.750,   0.00900,   0.16600,   0.00000,   0.00000,1.00000,1,    5.6,    18.000,     0.000,   7,1.0000
 15573,'1 ',     6.000,     0.000,     0.000,     0.000,1.04000,     0,    23.000,   0.02570,   0.73700,   0.00000,   0.00000,1.00000,1,    6.2,    20.000,     0.000,   7,1.0000
 15771,'1 ',     0.594,    -0.300,    -0.300,    -0.300,1.04000,  3581,     1.980,   0.02040,   0.33060,   0.00000,   0.00000,1.00000,1,    1.5,     1.980,     0.000,   7,1.0000
 15772,'1 ',     0.900,    -1.920,    -1.920,    -1.920,1.04000,  3581,     3.000,   0.02040,   0.33060,   0.00000,   0.00000,1.00000,1,    1.5,     3.000,     0.000,   7,1.0000
 16371,'1 ',     1.020,     0.000,     0.000,     0.000,1.00000,     0,     3.400,   0.00730,   0.13500,   0.00000,   0.00000,1.00000,1,    1.1,     3.400,     0.000,   7,1.0000
 16372,'2 ',     1.020,     0.000,     0.000,     0.000,1.00000,     0,     3.400,   0.00730,   0.13500,   0.00000,   0.00000,1.00000,1,    1.1,     3.400,     0.000,   7,1.0000
 16373,'3 ',     2.040,     0.000,     0.000,     0.000,1.00000,     0,     6.800,   0.00730,   0.13500,   0.00000,   0.00000,1.00000,1,    2.1,     6.800,     0.000,   7,1.0000
 16374,'4 ',     2.295,     0.000,     0.000,     0.000,1.00000,     0,     7.650,   0.00210,   0.08600,   0.00000,   0.00000,1.00000,1,    2.4,     7.650,     0.000,   7,1.0000
 16375,'1 ',     1.188,     0.000,     0.000,     0.000,1.00000,     0,     4.250,   0.00210,   0.08600,   0.00000,   0.00000,1.00000,1,    1.3,     3.960,     0.000,   7,1.0000
 16376,'6 ',     1.485,     0.000,     0.000,     0.000,1.00000,     0,     5.100,   0.00210,   0.08600,   0.00000,   0.00000,1.00000,1,    1.5,     4.950,     0.000,   7,1.0000
 16377,'1 ',     2.700,     0.000,     0.000,     0.000,1.00000,     0,     9.200,   0.02570,   0.73700,   0.00000,   0.00000,1.00000,1,    3.0,     9.000,     0.000,   7,1.0000
 16378,'1 ',     0.480,     0.000,     0.000,     0.000,1.00000,     0,     1.700,   0.00210,   0.08600,   0.00000,   0.00000,1.00000,1,    0.5,     1.600,     0.000,   7,1.0000
 16379,'2 ',     0.087,     0.000,     0.000,     0.000,1.00000,     0,     0.323,   0.00320,   0.12400,   0.00000,   0.00000,1.00000,1,    1.3,     0.290,     0.000,   7,1.0000
 16571,'1 ',    11.340,     0.000,     0.000,     0.000,1.05000,  1651,    40.000,   0.02570,   0.73700,   0.00000,   0.00000,1.00000,1,   12.6,    37.800,     0.000,   7,1.0000
 16670,'1 ',     1.350,    -1.336,     0.000,    -3.070,1.00000,     0,     4.500,   0.03020,   0.86600,   0.00000,   0.00000,1.00000,1,    2.9,     4.500,     0.000,   7,1.0000
 16671,'1 ',     1.020,     0.000,     0.000,     0.000,1.04000,     0,     3.400,   0.00730,   0.13500,   0.00000,   0.00000,1.00000,1,    1.1,     3.400,     0.000,   7,1.0000
 16672,'2 ',     0.477,    -0.560,    -0.560,    -0.560,1.04000,     0,     1.700,   0.00730,   0.13500,   0.00000,   0.00000,1.00000,1,    0.5,     1.590,     0.000,   7,1.0000
 16674,'1 ',     5.610,     0.000,     0.000,     0.000,1.04000,     0,    18.700,   0.00730,   0.13500,   0.00000,   0.00000,1.00000,1,    5.8,    18.700,     0.000,   7,1.0000
 16675,'2 ',     2.400,    -2.650,    -2.650,    -2.650,1.04000,     0,     8.000,   0.02690,   0.76900,   0.00000,   0.00000,1.00000,1,    2.7,     8.000,     0.000,   7,1.0000
 16677,'1 ',     1.020,     0.000,     0.000,     0.000,1.00000,     0,     3.400,   0.00210,   0.08600,   0.00000,   0.00000,1.00000,1,    1.1,     3.400,     0.000,   7,1.0000
 16679,'3 ',     1.020,     0.000,     0.000,     0.000,1.00000,     0,     3.400,   0.00210,   0.08600,   0.00000,   0.00000,1.00000,1,    1.1,     3.400,     0.000,   7,1.0000
 16873,'3 ',     8.000,     0.000,     7.000,    -1.000,1.05000,  1681,    11.500,   0.00000,   0.25000,   0.00000,   0.00000,1.00000,0,    7.0,     8.000,     2.000,   3,1.0000
 17073,'3 ',    22.500,     0.000,    23.000,   -25.000,1.05000,  1701,    35.500,   0.00410,   0.18000,   0.00000,   0.00000,1.00000,0,    7.0,    22.500,     5.000,   3,1.0000
 17074,'4 ',    22.500,     0.000,    23.000,   -25.000,1.05000,  1701,    35.500,   0.00410,   0.18000,   0.00000,   0.00000,1.00000,0,    7.0,    22.500,     5.000,   3,1.0000
 17075,'7 ',     0.594,    -0.800,    -0.800,    -0.800,1.00000,     0,     1.980,   0.02040,   0.33060,   0.00000,   0.00000,1.00000,1,    0.6,     1.980,     0.000,   7,1.0000
 17077,'8 ',     0.006,     0.000,     0.000,     0.000,1.00000,     0,     1.200,   0.03020,   0.86600,   0.00000,   0.00000,1.00000,1,    0.3,     0.020,     0.000,   7,1.0000
 17671,'1 ',    10.000,     0.000,     7.000,    -3.000,1.05000,  1701,    12.500,   0.00000,   0.15000,   0.00000,   0.00000,1.00000,0,    7.0,    10.000,     3.000,   3,1.0000
 17672,'2 ',    10.000,     0.000,     7.000,    -3.000,1.05000,  1701,    12.500,   0.00000,   0.13500,   0.00000,   0.00000,1.00000,0,    7.0,    10.000,     3.000,   3,1.0000
 18271,'DW',     1.275,    -1.000,    -1.000,    -1.000,1.00000,     0,     4.250,   0.00730,   0.13500,   0.00000,   0.00000,1.00000,1,    1.2,     4.250,     0.000,   7,1.0000
 18471,'1 ',     1.497,     0.000,     0.000,     0.000,1.04000,     0,     5.200,   0.00550,   0.14300,   0.00000,   0.00000,1.00000,1,    1.5,     4.990,     0.000,   7,1.0000
 18472,'DW',     0.750,    -0.792,     0.000,    -0.820,1.00000,     0,     2.978,   0.00220,   0.41940,   0.00000,   0.00000,1.00000,1,    0.8,     2.500,     0.000,   7,1.0000
 18901,'OH',    58.000,     0.000,    30.000,   -21.320,1.07500,  1891,    68.235,   0.00000,   0.17000,   0.00000,   0.00000,1.00000,0,   30.0,    58.000,    20.000,   1,1.0000
 19081,'1 ',     0.765,     0.000,     0.000,     0.000,1.04000,     0,     2.550,   0.00730,   0.13500,   0.00000,   0.00000,1.00000,1,    0.8,     2.550,     0.000,   7,1.0000
 19082,'2 ',     0.510,     0.000,     0.000,     0.000,1.05000,     0,     1.700,   0.00730,   0.13500,   0.00000,   0.00000,1.00000,1,    0.5,     1.700,     0.000,   7,1.0000
 19083,'1 ',     1.497,     0.000,     0.000,     0.000,1.04000,     0,     6.900,   0.02570,   0.73700,   0.00000,   0.00000,1.00000,1,    1.6,     4.990,     0.000,   7,1.0000
 19084,'2 ',     1.350,    -1.500,    -1.500,    -1.500,1.04000,     0,     4.600,   0.02570,   0.73700,   0.00000,   0.00000,1.00000,1,    1.6,     4.500,     0.000,   7,1.0000
 19085,'1 ',     6.300,    -7.000,    -7.000,    -7.000,1.04000,     0,    23.824,   0.00220,   0.41940,   0.00000,   0.00000,1.00000,1,    6.6,    21.000,     0.000,   7,1.0000
 19101,'OH',    98.400,     0.000,    51.000,   -36.170,1.07500,  1911,   108.240,   0.00000,   0.14400,   0.00279,   0.11997,1.00000,0,   51.0,    98.400,    34.000,   1,1.0000
 19317,'SC',     0.000,     0.000,     6.000,    -6.000,1.05000,  1931,     6.000,   0.00000,9999.00000,   0.00000,   0.00000,1.00000,0,    6.0,     0.000,     0.000,   1,1.0000
 19371,'1 ',     7.125,     0.000,     0.000,     0.000,1.05000,  1931,    29.780,   0.00220,   0.41940,   0.00000,   0.00000,1.00000,1,   11.0,    23.750,     0.000,   7,1.0000
 19372,'2 ',     3.315,     0.000,     0.000,     0.000,1.05000,  1931,    11.050,   0.00730,   0.13500,   0.00000,   0.00000,1.00000,1,   11.6,    11.050,     0.000,   7,1.0000
 19471,'1 ',   130.000,    52.622,    94.000,   -50.000,1.07500,  1941,   153.000,   0.00000,   0.15300,   0.00000,   0.00000,1.00000,1,   75.0,   133.500,    60.000,   4,1.0000
 19472,'5 ',    58.274,     0.000,    38.000,   -23.000,1.07500,  1941,    66.625,   0.00200,   0.14450,   0.00000,   0.00000,1.00000,0,   41.0,    58.274,    19.700,   1,1.0000
 19473,'3 ',    58.274,     0.000,    40.000,   -23.000,1.07500,  1941,    66.625,   0.00200,   0.14450,   0.00000,   0.00000,1.00000,0,   41.0,    58.274,    19.700,   1,1.0000
 19601,'2 ',     0.585,     0.000,     0.000,     0.000,1.00000,     0,     6.500,   0.00000,   0.21900,   0.00000,   0.00000,1.00000,1,  100.0,     5.850,     0.000,   2,1.0000
 19771,'1 ',    12.750,     0.000,     0.000,     0.000,1.05000,  1971,    46.875,   0.00900,   0.16600,   0.00000,   0.00000,1.00000,1,    8.5,    42.500,     0.000,   7,1.0000
 19772,'TW',     2.550,    -2.079,     2.790,    -2.790,1.05000,  1971,     8.500,   0.00730,   0.13500,   0.00000,   0.00000,1.00000,1,    2.8,     8.500,     0.000,   7,1.0000
 19773,'TW',     9.000,    -7.351,     9.860,    -9.860,1.05000,  1971,    38.714,   0.00220,   0.41940,   0.00000,   0.00000,1.00000,1,    9.9,    30.000,     0.000,   7,1.0000
 19971,'1 ',     6.000,    -6.700,     6.700,    -6.700,1.05000,  1991,    20.700,   0.02570,   0.73700,   0.00000,   0.00000,1.00000,1,    6.7,    20.000,     0.000,   7,1.0000
 19972,'2 ',     0.690,     0.000,     0.000,     0.000,1.05000,  1991,     2.300,   0.02570,   0.73700,   0.00000,   0.00000,1.00000,1,    0.7,     2.300,     0.000,   7,1.0000
 19973,'3 ',     0.690,     0.000,     0.000,     0.000,1.05000,  1991,     2.300,   0.02570,   0.73700,   0.00000,   0.00000,1.00000,1,    1.1,     2.300,     0.000,   7,1.0000
 19974,'4 ',     4.830,    -4.000,     4.000,    -4.000,1.05000,  1991,    16.100,   0.02570,   0.73700,   0.00000,   0.00000,1.00000,1,    4.0,    16.100,     0.000,   7,1.0000
 20101,'OH',    35.000,     0.000,    21.000,   -14.000,1.07500,  2011,    41.200,   0.00000,   0.18000,   0.00000,   0.00000,1.00000,0,   21.0,    35.000,   -38.000,   1,1.0000
 21071,'2 ',     0.150,     0.000,     0.000,     0.000,1.05000,     0,     0.850,   0.00730,   0.13500,   0.00000,   0.00000,1.00000,1,    0.2,     0.500,     0.000,   7,1.0000
 21371,'TW',     8.550,    -5.409,     9.500,    -9.500,1.05000,  2131,    31.730,   0.00920,   0.16210,   0.00000,   0.00000,1.00000,1,    9.5,    28.500,     0.000,   7,1.0000
 21372,'2 ',     5.250,    -3.303,     5.800,    -5.800,1.05000,  2131,    23.380,   0.00920,   0.16210,   0.00000,   0.00000,1.00000,1,    5.8,    17.500,     0.000,   7,1.0000
 21871,'1 ',     0.510,     0.000,     0.000,     0.000,1.01000,     0,     1.700,   0.00730,   0.13500,   0.00000,   0.00000,1.00000,1,    0.5,     1.700,     0.000,   7,1.0000
 21872,'2 ',     0.750,    -0.990,    -0.990,    -1.280,1.01000,     0,     2.700,   0.03020,   0.86600,   0.00000,   0.00000,1.00000,1,    0.9,     2.500,     0.000,   7,1.0000
 21873,'1 ',     1.274,     0.000,     0.000,     0.000,1.00000,     0,     1.600,   0.02040,   0.33060,   0.00000,   0.00000,1.00000,0,  100.0,     1.274,     0.000,   1,1.0000
 21875,'1 ',     3.000,     0.000,     0.000,     0.000,1.00000,     0,     3.780,   0.00000,   0.15000,   0.00000,   0.00000,1.00000,0,  100.0,     3.000,     0.000,   1,1.0000
 22272,'DW',     5.100,    -4.226,     0.000,    -5.590,1.00000,     0,    16.000,   0.00900,   0.14800,   0.00000,   0.00000,1.00000,1,    5.3,    17.000,     0.000,   7,1.0000
 22273,'DW',     1.350,    -0.783,     0.000,    -1.480,1.00000,     0,     4.000,   0.02690,   0.76900,   0.00000,   0.00000,1.00000,1,    1.4,     4.500,     0.000,   7,1.0000
 22274,'2 ',     1.782,    -2.400,    -2.400,    -2.400,1.00000,     0,     5.940,   0.02040,   0.33060,   0.00000,   0.00000,1.00000,1,    1.9,     5.940,     0.000,   7,1.0000
 22275,'4 ',     1.275,     0.000,     0.000,     0.000,1.00000,     0,     4.250,   0.00730,   0.13500,   0.00000,   0.00000,1.00000,1,    1.3,     4.250,     0.000,   7,1.0000
 22276,'3 ',     1.785,     0.000,     0.000,     0.000,1.00000,     0,     6.680,   0.00920,   0.16210,   0.00000,   0.00000,1.00000,1,    1.9,     5.950,     0.000,   7,1.0000
 22277,'DW',     0.915,    -0.812,     0.000,    -0.990,1.00000,     0,     3.340,   0.00920,   0.16210,   0.00000,   0.00000,1.00000,1,    0.9,     3.050,     0.000,   7,1.0000
 22278,'1 ',     1.386,    -1.000,    -1.000,    -1.000,1.00000,     0,     4.620,   0.02040,   0.33060,   0.00000,   0.00000,1.00000,1,    1.4,     4.620,     0.000,   7,1.0000
 22292,'5 ',     6.000,     0.000,     0.000,     0.000,1.00000,     0,     6.000,   0.00000,   0.20000,   0.00000,   0.10000,1.00000,0,    2.0,     6.000,     0.000,   1,1.0000
 22371,'1 ',    17.850,     0.000,     0.000,     0.000,1.05000,  2231,    59.500,   0.00730,   0.13500,   0.00000,   0.00000,1.00000,1,   12.0,    59.500,     0.000,   7,1.0000
 22471,'1 ',     0.765,     0.000,     0.000,     0.000,1.04000,     0,     2.550,   0.00730,   0.13500,   0.00000,   0.00000,1.00000,1,    0.8,     2.550,     0.000,   7,1.0000
 22472,'2 ',     1.275,     0.000,     0.000,     0.000,1.04000,     0,     4.250,   0.00730,   0.13500,   0.00000,   0.00000,1.00000,1,    1.3,     4.250,     0.000,   7,1.0000
 22473,'1 ',     1.275,    -1.500,    -1.500,    -1.500,1.01000,     0,     4.250,   0.00730,   0.13500,   0.00000,   0.00000,1.00000,1,    1.3,     4.250,     0.000,   7,1.0000
...